Circuit: * C:\Users\Callicious\Documents\Prog\pycharm\EvaBatProject\Schematics\Pseudomoth Project Schematics\Analogue Circuitry\Draft2.asc

Direct Newton iteration failed to find .op point.  (Use ".option noopiter" to skip.)
Starting Gmin stepping
Gmin = 10
Gmin = 1.07374
Gmin = 0.115292
Gmin = 0.0123794
Gmin = 0.00132923
Gmin = 0.000142725
Gmin = 1.5325e-005
Gmin = 1.6455e-006
vernier = 0.5
Gmin = 3.06744e-007
vernier = 0.25
vernier = 0.125
vernier = 0.0625
Gmin = 2.96077e-007
vernier = 0.0833333
vernier = 0.0416667
Gmin = 2.68351e-007
vernier = 0.0208333
vernier = 0.0277778
Gmin = 2.56981e-007
vernier = 0.0138889
vernier = 0.0185185
Gmin = 2.49664e-007
vernier = 0.00925925
vernier = 0.0123457
Gmin = 2.44523e-007
vernier = 0.0164609
vernier = 0.00823044
Gmin = 2.39796e-007
vernier = 0.0109739
vernier = 0.0146319
vernier = 0.00731595
Gmin = 2.35026e-007
vernier = 0.00975459
vernier = 0.0048773
vernier = 0.00243865
vernier = 0.00121932
vernier = 0.000609662
vernier = 0.000457246
Gmin = 0
Gmin = 0
Gmin stepping failed

Starting source stepping with srcstepmethod=0
Source Step = 3.0303%
Source Step = 4.54545%
Source Step = 6.43939%
Source Step = 8.33333%
Source Step = 10.2273%
Source Step = 12.1212%
vernier = 0.09375
Source Step = 13.1155%
Source Step = 13.8258%
Source Step = 14.536%
Source Step = 15.2462%
Source Step = 15.9564%
vernier = 0.0351563
Source Step = 16.8442%
Source Step = 17.9096%
Source Step = 18.9749%
Source Step = 20.0402%
Source Step = 21.1056%
vernier = 0.0527344
Source Step = 21.8646%
Source Step = 22.2641%
Source Step = 22.6636%
Source Step = 23.0632%
Source Step = 23.4627%
vernier = 0.0197754
Source Step = 23.9021%
Source Step = 24.5014%
Source Step = 25.1006%
Source Step = 25.6999%
Source Step = 26.2991%
vernier = 0.0296631
Source Step = 26.9283%
Source Step = 27.8272%
Source Step = 28.7261%
Source Step = 29.625%
Source Step = 30.5239%
Source Step = 31.4227%
vernier = 0.0444946
Source Step = 31.7261%
Source Step = 32.0632%
Source Step = 32.4003%
Source Step = 32.7374%
Source Step = 33.0744%
vernier = 0.0166855
Source Step = 33.5464%
Source Step = 34.052%
Source Step = 34.5576%
Source Step = 35.0632%
Source Step = 35.5688%
vernier = 0.0250282
Source Step = 36.2514%
Source Step = 37.0099%
Source Step = 37.7683%
Source Step = 38.5267%
Source Step = 39.2852%
vernier = 0.0375423
Source Step = 39.7307%
Source Step = 40.0151%
Source Step = 40.2996%
Source Step = 40.584%
Source Step = 40.8684%
vernier = 0.0140784
Source Step = 41.2097%
Source Step = 41.6363%
Source Step = 42.0629%
Source Step = 42.4895%
Source Step = 42.9161%
vernier = 0.0211176
Source Step = 43.4068%
Source Step = 44.0467%
Source Step = 44.6866%
Source Step = 45.3265%
Source Step = 45.9665%
vernier = 0.0316764
Source Step = 46.6704%
Source Step = 47.6303%
Source Step = 48.5902%
Source Step = 49.55%
Source Step = 50.5099%
vernier = 0.0475145
Source Step = 51.5178%
Source Step = 52.9577%
Source Step = 54.3975%
Source Step = 55.8373%
Source Step = 57.2772%
Source Step = 58.717%
vernier = 0.0712718
Source Step = 60.8767%
Source Step = 63.0365%
Source Step = 65.1962%
Source Step = 67.356%
Source Step = 69.5157%
vernier = 0.106908
Source Step = 72.6474%
Source Step = 75.887%
Source Step = 79.1266%
Source Step = 82.3663%
Source Step = 85.6059%
vernier = 0.160362
Source Step = 90.1414%
Source Step = 95.0008%
Source Step = 99.8602%
Source stepping succeeded in finding the operating point.


Date: Fri Apr 14 19:21:15 2023
Total elapsed time: 0.597 seconds.

tnom = 27
temp = 27
method = trap
totiter = 6306
traniter = 0
tranpoints = 0
accept = 0
rejected = 0
matrix size = 179
fillins = 228
solver = Normal
Matrix Compiler1:     911 opcodes
Matrix Compiler2: 15.77 KB object code size  0.8/2.2/[0.7]

